!!>>>>>>>>>>>>>>>>>>>>>>>>>>>>>>>>>>>>>>>>>>>>>>>>>>>>>>>>>>>>>>>>>>>>>>
!! NEMO/OPA  Configuration namelist : used to overwrite defaults values defined in SHARED/namelist_ref
!!>>>>>>>>>>>>>>>>>>>>>>>>>>>>>>>>>>>>>>>>>>>>>>>>>>>>>>>>>>>>>>>>>>>>>>
!
!-----------------------------------------------------------------------
&namrun        !   parameters of the run
!-----------------------------------------------------------------------
       cn_exp='se-orca025'
       nn_date0=19580101   !  date at nit_0000 (format yyyymmdd) used if ln_rstart=F or (ln_rstart=T and nn_rstctl=0 or 1)
       nn_it000=1
       nn_itend=480
       nn_stock=480
       !nn_itend=96
       !nn_stock=96
/
!
!!======================================================================
!!                      ***  Domain namelists  ***
!!======================================================================
!!   namcfg       parameters of the configuration
!!   namzgr       vertical coordinate
!!   namzgr_sco   s-coordinate or hybrid z-s-coordinate
!!   namdom       space and time domain (bathymetry, mesh, timestep)
!!   namtsd       data: temperature & salinity
!!======================================================================
!
!-----------------------------------------------------------------------
&namcfg     !   parameters of the configuration
!-----------------------------------------------------------------------
   ln_read_cfg = .true.      !  (=T) read the domain configuration file
      !                      !  (=F) user defined configuration           (F => create/check namusr_def)
      cn_domcfg = "./INPUTS/eORCA025_zps_domcfg"  ! domain configuration filename
/
!-----------------------------------------------------------------------
&namdom        !   space and time domain (bathymetry, mesh, timestep)
!-----------------------------------------------------------------------
   ln_meshmask = .false.
                           !
   rn_rdt      = 900.      !  time step for the dynamics (and tracer if nn_acc=0)
   rn_atfp     =    0.1    !  asselin time filter parameter
/
!-----------------------------------------------------------------------
&namsplit      !   time splitting parameters                            ("key_dynspg_ts")
!-----------------------------------------------------------------------
/
!-----------------------------------------------------------------------
&namcrs        !   Grid coarsening for dynamics output and/or
               !   passive tracer coarsened online simulations
!-----------------------------------------------------------------------
/
!-----------------------------------------------------------------------
&namc1d        !   1D configuration options                             ("key_c1d")
!-----------------------------------------------------------------------
/
!-----------------------------------------------------------------------
&namtsd    !   data : Temperature  & Salinity
!-----------------------------------------------------------------------
!-----------------------------------------------------------------------
!          !  file name                            ! frequency (hours) ! variable  ! time interp. !  clim  ! 'yearly'/ ! weights  ! rotation ! land/sea mask !
!          !                                       !  (if <0  months)  !   name    !   (logical)  !  (T/F) ! 'monthly' ! filename ! pairing  ! filename      !
   sn_tem = 'conservative_temperature_WOA13_decav_Reg1L75_clim' , -1,  'votemper',  .false.       , .true., 'yearly'   , 'weights_3D_WOA13d1_2_eorca025_bilinear.nc', ' ' ,''  !
   sn_sal = 'absolute_salinity_WOA13_decav_Reg1L75_clim'        , -1,  'vosaline',  .false.       , .true., 'yearly'   , 'weights_3D_WOA13d1_2_eorca025_bilinear.nc', ' ' ,''  !
   !
   cn_dir        = './INPUTS/'     !  root directory for the location of the runoff files
   ln_tsd_init   = .true.   !  Initialisation of ocean T & S with T &S input data (T) or not (F)
   ln_tsd_dmp = .false.     !  damping of ocean T & S toward T &S input data (T) or not (F)
/
!!======================================================================
!!            ***  Surface Boundary Condition namelists  ***
!!======================================================================
!!   namsbc          surface boundary condition
!!   namsbc_ana      analytical         formulation
!!   namsbc_flx      flux               formulation
!!   namsbc_clio     CLIO bulk formulae formulation
!!   namsbc_core     CORE bulk formulae formulation
!!   namsbc_mfs      MFS  bulk formulae formulation
!!   namsbc_cpl      CouPLed            formulation                     ("key_oasis3")
!!   namsbc_sas      StAndalone Surface module
!!   namtra_qsr      penetrative solar radiation
!!   namsbc_rnf      river runoffs
!!   namsbc_isf      ice shelf melting/freezing
!!   namsbc_apr      Atmospheric Pressure
!!   namsbc_ssr      sea surface restoring term (for T and/or S)
!!   namsbc_alb      albedo parameters
!!======================================================================
!
!-----------------------------------------------------------------------
&namsbc        !   Surface Boundary Condition (surface module)
!-----------------------------------------------------------------------
   nn_fsbc     = 2         !  frequency of surface boundary condition computation
                           !     (also = the frequency of sea-ice model call)
   ln_ice_embd = .false.
   ln_dm2dc    = .true.    !  daily mean to diurnal cycle on short wave
   ln_traqsr   = .true.    !  Light penetration in the ocean            (T => fill namtra_qsr)
   ln_rnf      = .true.    !  runoffs                                   (T   => fill namsbc_rnf)
   nn_ice      = 2
   ln_ssr      = .true.    !  Sea Surface Restoring on T and/or S       (T => fill namsbc_ssr)
   ln_blk      = .true.    !
   nn_fwb      = 2         !  FreshWater Budget: =0 unchecked
                           !     =1 global mean of e-p-r set to zero at each time step
/
!-----------------------------------------------------------------------
&namsbc_ana    !   analytical surface boundary condition
!-----------------------------------------------------------------------
/
!-----------------------------------------------------------------------
&namsbc_flx    !   surface boundary condition : flux formulation
!-----------------------------------------------------------------------
/
!-----------------------------------------------------------------------
&namsbc_clio   !   namsbc_clio  CLIO bulk formulae
!-----------------------------------------------------------------------
/
!-----------------------------------------------------------------------
&namsbc_blk    !   namsbc_blk  generic Bulk formula          (ln_blk =T)
!-----------------------------------------------------------------------
   ln_NCAR      = .true.    ! "NCAR"      algorithm   (Large and Yeager 2008)
   cn_dir      = './INPUTS/'      !  root directory for the location of the bulk files
   rn_zqt      = 2.        !  Air temperature and humidity reference height (m)
   rn_zu       = 10.        !  Wind vector reference height (m)
                           !  in the calculation of the wind stress (0.=absolute winds or 1.=relative winds)
!
!              !   file name  ! frequency (hours) ! variable   ! time interpol. !  clim   ! 'yearly'/ ! weights              ! rotation !
!              !              !  (if <0  months)  !   name     !    (logical)   !  (T/F)  ! 'monthly' ! filename             ! pairing  !
   sn_wndi =    'drowned_u10_DFS5.2'  ,     3     ,  'u10'     ,    .true.      , .false. ,  'yearly'  ,  'weights_bicubic_e025' ,  'U1'
   sn_wndj =    'drowned_v10_DFS5.2'  ,     3     ,  'v10'     ,    .true.      , .false. ,  'yearly'  ,  'weights_bicubic_e025' ,  'V1'
   sn_humi =    'drowned_q2_DFS5.2'    ,    3     ,  'q2'      ,    .true.      , .false. ,  'yearly'  ,  'weights_bilinear_e025' ,   ''
   sn_qsr  =    'drowned_radsw_DFS5.2' ,    24    ,  'radsw'   ,    .false.     , .false. ,  'yearly'  ,  'weights_bilinear_e025' ,   ''
   sn_qlw  =    'drowned_radlw_DFS5.2' ,    24    ,  'radlw'   ,    .false.     , .false. ,  'yearly'  ,  'weights_bilinear_e025' ,   ''
   sn_tair =    'drowned_t2_DFS5.2'    ,    3     ,  't2'      ,    .true.      , .false. ,  'yearly'  ,  'weights_bilinear_e025' ,   ''
   sn_prec =    'drowned_precip_DFS5.2' ,   24     ,  'precip'  ,    .true.      , .false. ,  'yearly'  ,  'weights_bilinear_e025' ,  ''
   sn_snow =    'drowned_snow_DFS5.2'  ,    24     ,  'snow'    ,    .true.      , .false. ,  'yearly'  ,  'weights_bilinear_e025' ,  ''
   sn_slp  =    'fake_slp_y1958.nc'    ,   -12     ,  'slp'     ,    .false.     , .true.  ,  'yearly'  ,  'weights_Goutorbe1_2_eorca025_bilinear' ,  ''
/
!-----------------------------------------------------------------------
&namsbc_cpl    !   coupled ocean/atmosphere model                       ("key_oasis3")
!-----------------------------------------------------------------------
/
!-----------------------------------------------------------------------
&namsbc_sas    !   analytical surface boundary condition
!-----------------------------------------------------------------------
!              !  file name  ! frequency (hours) ! variable  ! time interp. !  clim  ! 'yearly'/ ! weights  ! rotation ! land/sea mask !
/
!-----------------------------------------------------------------------
&namtra_qsr    !   penetrative solar radiation
!-----------------------------------------------------------------------
!              !  file name  ! frequency (hours) ! variable  ! time interp. !  clim  ! 'yearly'/ ! weights  ! rotation ! land/sea mask !
!              !             !  (if <0  months)  !   name    !   (logical)  !  (T/F) ! 'monthly' ! filename ! pairing  ! filename      !
   sn_chl      ='merged_ESACCI_BIOMER4V1R1_CHL_REG05', -1 , 'CHLA' , .true. , .true. , 'yearly'  , 'weights_reg05_2_eorca025_bilinear.nc' , '', ''

   cn_dir      = './INPUTS/'      !  root directory for the location of the runoff files
   ln_qsr_rgb  = .true.    !  RGB (Red-Green-Blue) light penetration
   ln_qsr_2bd  = .false.   !  2 bands              light penetration
   ln_qsr_bio  = .false.   !  bio-model light penetration
   nn_chldta   =      1    !  RGB : 2D Chl data (=1) or cst value (=0)
   rn_abs      =   0.58    !  RGB & 2 bands: fraction of light (rn_si1)
   rn_si0      =   0.35    !  RGB & 2 bands: shortess depth of extinction
   rn_si1      =   23.0    !  2 bands: longest depth of extinction
/
!-----------------------------------------------------------------------
&namsbc_rnf    !   runoffs namelist surface boundary condition
!-----------------------------------------------------------------------
!              !  file name           ! frequency (hours) ! variable  ! time interp. !  clim  ! 'yearly'/ ! weights  ! rotation ! land/sea mask !
!              !                      !  (if <0  months)  !   name    !   (logical)  !  (T/F) ! 'monthly' ! filename ! pairing  ! filename      !
   sn_rnf      = 'eORCA_R025_runoff_v1.0'            ,        -1         , 'sornficb',   .true.     , .true. , 'yearly'  , ''       , ''  , ''
   sn_cnf      = 'eORCA_R025_runoff_v1.0'            ,         0         , 'socoefr' ,   .false.    , .true. , 'yearly'  , ''       , ''  , ''
   sn_s_rnf    = 'eORCA_R025_runoff_v1.0'            ,        24         , 'rosaline',   .true.     , .true. , 'yearly'  , ''       , ''  , ''
   sn_t_rnf    = 'eORCA_R025_runoff_v1.0'            ,        24         , 'rotemper',   .true.     , .true. , 'yearly'  , ''       , ''  , ''
   sn_dep_rnf  = 'eORCA_R025_runoff_v1.0'            ,         0         , 'rodepth' ,   .false.    , .true. , 'yearly'  , ''       , ''  , ''

   cn_dir       = './INPUTS/'      !  root directory for the location of the runoff files
   ln_rnf_mouth = .false. !!true. !rbb.false.   !  specific treatment at rivers mouths
   rn_hrnf      =   10.     !  depth over which enhanced vertical mixing is used
   rn_avt_rnf   =   2.e-3   !  value of the additional vertical mixing coef. [m2/s]
   rn_rfact     =   1.e0    !  multiplicative factor for runoff
   ln_rnf_depth = .false.   !  read in depth information for runoff
   ln_rnf_tem   = .false.   !  read in temperature information for runoff
   ln_rnf_sal   = .false.   !  read in salinity information for runoff
   ln_rnf_depth_ini = .true.  ! compute depth at initialisation from runoff file
   rn_rnf_max   = 0.027394  !  max value of the runoff climatologie over global domain ( ln_rnf_depth_ini = .true )
   rn_dep_max   = 150.      !  depth over which runoffs is spread ( ln_rnf_depth_ini = .true )
   nn_rnf_depth_file = 0    !  create (=1) a runoff depth file or not (=0)
/
!-----------------------------------------------------------------------
&namisf    !  Top boundary layer (ISF)
!-----------------------------------------------------------------------
/
!-----------------------------------------------------------------------
&namsbc_apr    !   Atmospheric pressure used as ocean forcing or in bulk
!-----------------------------------------------------------------------
!              !  file name  ! frequency (hours) ! variable  ! time interp. !  clim  ! 'yearly'/ ! weights  ! rotation ! land/sea mask !
!              !             !  (if <0  months)  !   name    !   (logical)  !  (T/F) ! 'monthly' ! filename ! pairing  ! filename      !
/
!-----------------------------------------------------------------------
&namsbc_ssr    !   surface boundary condition : sea surface restoring
!-----------------------------------------------------------------------
!              !  file name  ! frequency (hours) ! variable  ! time interp. !  clim  ! 'yearly'/ ! weights  ! rotation ! land/sea mask !
!              !             !  (if <0  months)  !   name    !   (logical)  !  (T/F) ! 'monthly' ! filename ! pairing  ! filename      !
   sn_sst      = 'sst_data'  ,                        24  ,  'sst'     ,    .false.   , .false., 'yearly'  , ''       , ''       , ''
   sn_sss      = 'sss_absolute_salinity_WOA13_decav_Reg1L75_clim'  , -1  , 'sosaline'     ,    .true.    , .true. , 'yearly'  , 'weights_WOA13d1_2_eorca025_bilinear.nc'       , ''       , ''

   cn_dir      = './INPUTS/'      !  root directory for the location of the runoff files
   nn_sstr     =     0     !  add a retroaction term in the surface heat       flux (=1) or not (=0)
   nn_sssr     =     2     !  add a damping     term in the surface freshwater flux (=2)
                           !  or to SSS only (=1) or no damping term (=0)
   rn_dqdt     =   -40.    !  magnitude of the retroaction on temperature   [W/m2/K]
   rn_deds     =  -166.67  !  magnitude of the damping on salinity   [mm/day]
   ln_sssr_bnd =   .true.  !  flag to bound erp term (associated with nn_sssr=2)
   rn_sssr_bnd =   4.e0    !  ABS(Max/Min) value of the damping erp term [mm/day]
/
!-----------------------------------------------------------------------
&namberg       !   iceberg parameters
!-----------------------------------------------------------------------
/

!!======================================================================
!!               ***  Lateral boundary condition  ***
!!======================================================================
!!   namlbc        lateral momentum boundary condition
!!   namcla        cross land advection
!!   namobc        open boundaries parameters                           ("key_obc")
!!   namagrif      agrif nested grid ( read by child model only )       ("key_agrif")
!!   nambdy        Unstructured open boundaries                         ("key_bdy")
!!   namtide       Tidal forcing at open boundaries                     ("key_bdy_tides")
!!======================================================================
!
!-----------------------------------------------------------------------
&namlbc        !   lateral momentum boundary condition
!-----------------------------------------------------------------------
   rn_shlat    =  0.0  !  shlat = 0  !  0 < shlat < 2  !  shlat = 2  !  2 < shlat
                       !  free slip  !   partial slip  !   no slip   ! strong slip
   ln_vorlat   = .false.   !  consistency of vorticity boundary condition with analytical eqs.
!   ln_shlat2d  = .true.    !  use 2D file for shlat
!              !  file name    ! frequency (hours) ! variable  ! time interp. !  clim  ! 'yearly'/ ! weights  ! rotation !
!              !               !  (if <0  months)  !   name    !   (logical)  !  (T/F) ! 'monthly' ! filename ! pairing  !
!   sn_shlat2d  =  'shlat2d.nc' ,  -12             , 'shlat2d' ,  .false.    , .true.  ,  'yearly' , ''       , ''

/
!-----------------------------------------------------------------------
&namagrif      !  AGRIF zoom                                            ("key_agrif")
!-----------------------------------------------------------------------
/
!-----------------------------------------------------------------------
&nam_tide      !   tide parameters (#ifdef key_tide)
!-----------------------------------------------------------------------
/
!-----------------------------------------------------------------------
&nambdy        !  unstructured open boundaries                          ("key_bdy")
!-----------------------------------------------------------------------
 /
!-----------------------------------------------------------------------
&nambdy_dta      !  open boundaries - external data           ("key_bdy")
!-----------------------------------------------------------------------
/
!-----------------------------------------------------------------------
&nambdy_tide     ! tidal forcing at open boundaries
!-----------------------------------------------------------------------
/
!!======================================================================
!!                 ***  Bottom boundary condition  ***
!!======================================================================
!!   nambfr        bottom friction
!!   nambbc        bottom temperature boundary condition
!!   nambbl        bottom boundary layer scheme                         ("key_trabbl")
!!======================================================================
!
!-----------------------------------------------------------------------
&namdrg        !   top/bottom drag coefficient                          (default: NO selection)
!-----------------------------------------------------------------------
   ln_drg_OFF  = .false.   !  free-slip       : Cd = 0                  (F => fill namdrg_bot
   ln_non_lin  = .true.   !  non-linear  drag: Cd = Cd0 |U|
/
!-----------------------------------------------------------------------
&namdrg_bot    !   bottom friction
!-----------------------------------------------------------------------
   rn_Cd0      =  1.e-3    !  drag coefficient [-]
   rn_Uc0      =  0.4      !  ref. velocity [m/s] (linear drag=Cd0*Uc0)
   rn_Cdmax    =  0.1      !  drag value maximum [-] (logarithmic drag)
   rn_ke0      =  2.5e-3   !  background kinetic energy  [m2/s2] (non-linear cases)
   rn_z0       =  3.e-3    !  roughness [m] (ln_loglayer=T)
/
!-----------------------------------------------------------------------
&nambbc        !   bottom temperature boundary condition
!-----------------------------------------------------------------------
!              !  file name  ! frequency (hours) ! variable  ! time interp. !  clim  ! 'yearly'/ ! weights  ! rotation ! land/sea mask !
!              !             !  (if <0  months)  !   name    !   (logical)  !  (T/F) ! 'monthly' ! filename ! pairing  ! filename      !
!              !                 !  (if <0  months)  !   name     !   (logical)    !  (T/F ) ! 'monthly' ! filename ! pairing  ! filename      !
   sn_qgh      ='Goutorbe_ghflux.nc',  -12.  , 'gh_flux'    ,   .false.     , .true. , 'yearly'  , 'weights_Goutorbe1_2_eorca025_bilinear.nc'       , ''       , ''
   !
   cn_dir      = './INPUTS/'      !  root directory for the location of the runoff files
   ln_trabbc   = .true.    !  Apply a geothermal heating at the ocean bottom
   nn_geoflx   =    2      !  geothermal heat flux: = 0 no flux
                           !     = 1 constant flux
                           !     = 2 variable flux (read in geothermal_heating.nc in mW/m2)
   rn_geoflx_cst = 86.4e-3 !  Constant value of geothermal heat flux [W/m2]

/
!-----------------------------------------------------------------------
&nambbl        !   bottom boundary layer scheme
!-----------------------------------------------------------------------
   ln_trabbl   = .true.  !  Bottom Boundary Layer parameterisation flag
   nn_bbl_ldf  =  1      !  diffusive bbl (=1)   or not (=0)
   nn_bbl_adv  =  0      !  advective bbl (=1/2) or not (=0)
   rn_ahtbbl   =  1000.  !  lateral mixing coefficient in the bbl  [m2/s]
   rn_gambbl   =  10.    !  advective bbl coefficient                 [s]
/

!!======================================================================
!!                        Tracer (T & S ) namelists
!!======================================================================
!!   nameos        equation of state
!!   namtra_adv    advection scheme
!!   namtra_adv_mle   mixed layer eddy param. (Fox-Kemper param.)
!!   namtra_ldf    lateral diffusion scheme
!!   namtra_dmp    T & S newtonian damping
!!======================================================================
!
!-----------------------------------------------------------------------
&nameos        !   ocean physical parameters
!-----------------------------------------------------------------------
   ln_teos10   = .true.          !  = Use TEOS-10
/
!-----------------------------------------------------------------------
&namtra_adv    !   advection scheme for tracer
!-----------------------------------------------------------------------
   ln_traadv_fct = .true.  !  FCT scheme
      nn_fct_h   =  2            !  =2/4, horizontal 2nd / 4th order
      nn_fct_v   =  2            !  =2/4, vertical   2nd / COMPACT 4th order
/
!-----------------------------------------------------------------------
&namtra_mle !   mixed layer eddy parametrisation (Fox-Kemper param)
!-----------------------------------------------------------------------
   ln_mle    = .true.      ! (T) use the Mixed Layer Eddy (MLE) parameterisation
   rn_ce     = 0.3        ! magnitude of the MLE (typical value: 0.06 to 0.08)
   nn_mle    = 1           ! MLE type: =0 standard Fox-Kemper ; =1 new formulation
   rn_lf     = 5.e+3       ! typical scale of mixed layer front (meters)                      (case rn_mle=0)
   rn_time   = 172800.     ! time scale for mixing momentum across the mixed layer (seconds)  (case rn_mle=0)
   rn_lat    = 20.         ! reference latitude (degrees) of MLE coef.                        (case rn_mle=1)
   nn_mld_uv = 0           ! space interpolation of MLD at u- & v-pts (0=min,1=averaged,2=max)
   nn_conv   = 0           ! =1 no MLE in case of convection ; =0 always MLE
   rn_rho_c_mle  = 0.01    ! delta rho criterion used to calculate MLD for FK
/
!----------------------------------------------------------------------------------
&namtra_ldf    !   lateral diffusion scheme for tracers
!----------------------------------------------------------------------------------
   !                       !  Operator type:
   ln_traldf_lap    =  .true.   !  laplacian operator
   ln_traldf_iso    =  .true.   !  iso-neutral                 (needs "key_ldfslp")
   nn_aht_ijk_t    = 20        !  space/time variation of eddy coefficient:
      !                             !   =-20 (=-30)    read in eddy_diffusivity_2D.nc (..._3D.nc) file
      !                             !   =  0           constant
      !                             !   = 10 F(k)      =ldf_c1d
      !                             !   = 20 F(i,j)    =ldf_c2d
      !                             !   = 21 F(i,j,t)  =Treguier et al. JPO 1997 formulation
      !                             !   = 30 F(i,j,k)  =ldf_c2d * ldf_c1d
      !                             !   = 31 F(i,j,k,t)=F(local velocity and grid-spacing)
      !                        !  time invariant coefficients:  aht0 = 1/2  Ud*Ld   (lap case)
      !                             !                           or   = 1/12 Ud*Ld^3 (blp case)
      rn_Ud        = 0.01           !  lateral diffusive velocity [m/s] (nn_aht_ijk_t= 0, 10, 20, 30)
      rn_Ld        =  30.e+3        !  lateral diffusive length   [m]   (nn_aht_ijk_t= 0, 10)
/
!-----------------------------------------------------------------------
&namtra_eiv    !   eddy induced velocity param.                         (default: OFF)
!-----------------------------------------------------------------------
   ln_ldfeiv   = .true.    ! use eddy induced velocity parameterization
      !
      !                        !  Coefficients:
      nn_aei_ijk_t    = 0           !  space/time variation of eddy coefficient:
      !                             !   =-20 (=-30)    read in eddy_induced_velocity_2D.nc (..._3D.nc) file
      !                             !   =  0           constant
      !                             !   = 10 F(k)      =ldf_c1d
      !                             !   = 20 F(i,j)    =ldf_c2d
      !                             !   = 21 F(i,j,t)  =Treguier et al. JPO 1997 formulation
      !                             !   = 30 F(i,j,k)  =ldf_c2d * ldf_c1d
      !                        !  time invariant coefficients:  aei0 = 1/2  Ue*Le
      rn_Ue        = 0.02           !  lateral diffusive velocity [m/s] (nn_aht_ijk_t= 0, 10, 20, 30)
      rn_Le        =  40.e+3        !  lateral diffusive length   [m]   (nn_aht_ijk_t= 0, 10)
      !
      ln_ldfeiv_dia =.false.   ! diagnose eiv stream function and velocities
/
!-----------------------------------------------------------------------
&namtra_dmp    !   tracer: T & S newtonian damping
!-----------------------------------------------------------------------
   ln_tradmp   =  .false.  !  add a damping termn (T) or not (F)
   nn_zdmp     =    1      !  vertical   shape =0    damping throughout the water column
                           !                   =1 no damping in the mixing layer (kz  criteria)
                           !                   =2 no damping in the mixed  layer (rho crieria)
   cn_resto    = 'resto.nc' ! Name of file containing restoration coefficient field (use dmp_tools to create this)
/

!!======================================================================
!!                      ***  Dynamics namelists  ***
!!======================================================================
!!   namdyn_adv    formulation of the momentum advection
!!   namdyn_vor    advection scheme
!!   namdyn_hpg    hydrostatic pressure gradient
!!   namdyn_spg    surface pressure gradient                            (CPP key only)
!!   namdyn_ldf    lateral diffusion scheme
!!======================================================================
!
!-----------------------------------------------------------------------
&namdyn_adv    !   formulation of the momentum advection
!-----------------------------------------------------------------------
   ln_dynadv_vec = .false.  !  vector form (T) or flux form (F)
   nn_dynkeg     = 1       ! scheme for grad(KE): =0   C2  ;  =1   Hollingsworth correction
   ln_dynadv_cen2= .false. !  flux form - 2nd order centered scheme
   ln_dynadv_ubs = .true. !  flux form - 3rd order UBS      scheme
/
!-----------------------------------------------------------------------
&nam_vvl    !   vertical coordinate options
!-----------------------------------------------------------------------
   ln_vvl_zstar  = .true.           !  zstar vertical coordinate
   ln_vvl_ztilde = .false.          !  ztilde vertical coordinate: only high frequency variations
   ln_vvl_layer  = .false.          !  full layer vertical coordinate
   ln_vvl_ztilde_as_zstar = .false. !  ztilde vertical coordinate emulating zstar
   ln_vvl_zstar_at_eqtor = .false.  !  ztilde near the equator
   rn_ahe3       = 0.0e0            !  thickness diffusion coefficient
   rn_rst_e3t    = 30.e0            !  ztilde to zstar restoration timescale [days]
   rn_lf_cutoff  = 5.0e0            !  cutoff frequency for low-pass filter  [days]
   rn_zdef_max   = 0.9e0            !  maximum fractional e3t deformation
   ln_vvl_dbg    = .true.           !  debug prints    (T/F)
/
!-----------------------------------------------------------------------
&namdyn_vor    !   option of physics/algorithm (not control by CPP keys)
!-----------------------------------------------------------------------
   ln_dynvor_ene = .true. !  enstrophy conserving scheme
   ln_dynvor_ens = .false. !  energy conserving scheme
   ln_dynvor_mix = .false. !  mixed scheme
   ln_dynvor_een = .false.  !  energy & enstrophy scheme
/
!-----------------------------------------------------------------------
&namdyn_hpg    !   Hydrostatic pressure gradient option
!-----------------------------------------------------------------------
   ln_hpg_zco  = .false.   !  z-coordinate - full steps
   ln_hpg_zps  = .false.   !  z-coordinate - partial steps (interpolation)
   ln_hpg_sco  = .true.    !  s-coordinate (standard jacobian formulation)
   ln_hpg_isf  = .false.   !  s-coordinate (sco ) adapted to isf
   ln_hpg_djc  = .false.   !  s-coordinate (Density Jacobian with Cubic polynomial)
   ln_hpg_prj  = .false.   !  s-coordinate (Pressure Jacobian scheme)
/
!-----------------------------------------------------------------------
&namdyn_spg    !   surface pressure gradient                            (default: NO selection)
!-----------------------------------------------------------------------
   ln_dynspg_ts   = .true.   ! split-explicit free surface
/
!-----------------------------------------------------------------------
&namdyn_ldf    !   lateral diffusion on momentum