!!>>>>>>>>>>>>>>>>>>>>>>>>>>>>>>>>>>>>>>>>>>>>>>>>>>>>>>>>>>>>>>>>>>>>>>
!! NEMO/OCE :   Configuration namelist_cfg                               !!
!!>>>>>>>>>>>>>>>>>>>>>>>>>>>>>>>>>>>>>>>>>>>>>>>>>>>>>>>>>>>>>>>>>>>>>>
!! NEMO/OCE  :  1 - Domain & run manager (namrun, namcfg, namdom, namtsd, namcrs, namc1d, namc1d_uvd)
!! namelists    2 - Surface boundary (namsbc, namsbc_flx, namsbc_blk, namsbc_cpl,
!!                                    namsbc_sas, namtra_qsr, namsbc_rnf,
!!                                    namisf, namsbc_apr, 
!!                                    namsbc_ssr, namsbc_wave, namberg)
!!              3 - lateral boundary (namlbc, namagrif, nambdy, nambdy_tide)
!!              4 - top/bot boundary (namdrg, namdrg_top, namdrg_bot, nambbc, nambbl)
!!              5 - Tracer           (nameos, namtra_adv, namtra_ldf, namtra_eiv, namtra_dmp)
!!              6 - dynamics         (namdyn_adv, namdyn_vor, namdyn_hpg, namdyn_spg, namdyn_ldf)
!!              7 - Vertical physics (namzdf, namzdf_ric, namzdf_tke, namzdf_gls, namzdf_iwm)
!!              8 - diagnostics      (namnc4, namtrd, namspr, namflo, namhsb)
!!              9 - Obs & Assim      (namobs, nam_asminc)
!!             10 - miscellaneous    (nammpp, namctl, namsto)
!!>>>>>>>>>>>>>>>>>>>>>>>>>>>>>>>>>>>>>>>>>>>>>>>>>>>>>>>>>>>>>>>>>>>>>>

!!======================================================================
!!              ***  Domain & Run management namelists  ***           !!
!!                                                                    !!
!!   namrun       parameters of the run
!!   namdom       space and time domain
!!   namcfg       parameters of the configuration                       (default: user defined GYRE)
!!   namwad       Wetting and drying                                    (default: OFF)
!!   namtsd       data: temperature & salinity                          (default: OFF)
!!   namcrs       coarsened grid (for outputs and/or TOP)               (ln_crs =T)
!!   namc1d       1D configuration options                              (ln_c1d =T)
!!   namc1d_dyndmp 1D newtonian damping applied on currents             (ln_c1d =T)
!!   namc1d_uvd   1D data (currents)                                    (ln_c1d =T)
!!======================================================================
!
!-----------------------------------------------------------------------
&namrun        !   parameters of the run
!-----------------------------------------------------------------------
   nn_no       =       0   !  Assimilation cycle index
   cn_exp      =  "XXX_EXP_XXX"  !  experience name
   nn_it000    =    XXX_TST_XXX   !  first time step
   nn_itend    =    XXX_TEN_XXX   !  last  time step (std 5840)
   nn_date0    =  XXX_YEAR_XXX0101   !  date at nit_0000 (format yyyymmdd) used if ln_rstart=F or (ln_rstart=T and nn_rstctl=0 or 1)
   nn_time0    =       0000   !  initial time of day in hhmm
   nn_leapy    =       1   !  Leap year calendar (1) or not (0)
   ln_rstart   = XXX_RST_XXX,   !  start from rest (F) or from a restart file (T)
      ln_1st_euler = .false.,  !  =T force a start with forward time step (ln_rstart=T)
      nn_rstctl    = XXX_RCT_XXX   !  restart control ==> activated only if ln_rstart=T
      !                          !    = 0 nn_date0 read in namelist ; nn_it000 : read in namelist
      !                          !    = 1 nn_date0 read in namelist ; nn_it000 : check consistancy between namelist and restart
      !                          !    = 2 nn_date0 read in restart  ; nn_it000 : check consistancy between namelist and restart
      cn_ocerst_in    = "XXX_RS0_XXX"   !  suffix of ocean restart name (input)
      cn_ocerst_indir = "./RESTARTS"         !  directory from which to read input ocean restarts
      cn_ocerst_out   = "restart"   !  suffix of ocean restart name (output)
      cn_ocerst_outdir = "./RESTARTS"        !  directory in which to write output ocean restarts
      ln_rstdate=XXX_RSD_XXX,
      ln_reset_ts=XXX_RTS_XXX,
   nn_istate   =       0   !  output the initial state (1) or not (0)
   ln_rst_list = .false.,   !  output restarts at list of times using nn_stocklist (T) or at set frequency with nn_stock (F)
   nn_stock    =       0   !  used only if ln_rst_list = F: output restart freqeuncy (modulo referenced to 1)
      !                          !    =  0 force to write restart files only at the end of the run
      !                          !    = -1 do not do any restart
   ln_mskland  = .false.,   !  mask land points in NetCDF outputs
   ln_cfmeta   = .true.,   !  output additional data to netCDF files required for compliance with the CF metadata standard
/
!-----------------------------------------------------------------------
&namdom        !   time and space domain
!-----------------------------------------------------------------------
   ln_linssh   = .false.,   !  =T  linear free surface  ==>>  model level are fixed in time
   !
   rn_Dt       = XXX_RDT_XXX     !  time step for the dynamics and tracer
   rn_atfp     =    0.1    !  asselin time filter parameter
   !
   ln_crs      = .false.,   !  Logical switch for coarsening module      (T => fill namcrs)
   ln_c1d      = .false.,   !  Single column domain (1x1pt)              (T => fill namc1d)
   !
   ln_meshmask = .false.,   !  =T create a mesh file
/
!-----------------------------------------------------------------------
&namcfg        !   parameters of the configuration                      (default: use namusr_def in namelist_cfg)
!-----------------------------------------------------------------------
   ln_read_cfg = .true.,     !  (=T) read the domain configuration file
      !                      !  (=F) user defined configuration           (F => create/check namusr_def)
      cn_domcfg = "domain_cfg"  ! domain configuration filename
      !
      ln_closea    = .true., !  (=T => fill namclo) 
      !                      !  (=F) no control of net precip/evap over closed sea
      !
   ln_write_cfg = .false.,    !  (=T) create the domain configuration file
      cn_domcfg_out = "domain_cfg_out" ! newly created domain configuration filename
      !
   ln_use_jattr = .false.,    !  use (T) the file attribute: open_ocean_jstart, if present
   !                         !  in netcdf input files, as the start j-row for reading
/
!-----------------------------------------------------------------------
&namclo        !   parameters of the closed sea (cs) behavior                (default: OFF)
!-----------------------------------------------------------------------
   ln_maskcs = .true.,        ! (=T) cs are masked ; So, in this case ln_mask_csundef and ln_clo_rnf have no effect.
      !                       ! (=F => set ln_mask_csundef and ln_clo_rnf) 
      !                       ! cs masks are read and net evap/precip over closed sea spread out depending on domain_cfg.nc masks.
      !                       ! See ln_mask_csundef and ln_clo_rnf for specific option related to this case
      !
      ln_mask_csundef = .true.,   ! (=T) undefined closed seas are masked ; 
      !                          ! (=F) undefined closed seas are kept and no specific treatment is done for these closed seas
      !
      ln_clo_rnf = .true.,        ! (=T) river mouth specified in domain_cfg.nc masks (rnf and emp case) are added to the runoff mask.
      !                          !      allow the treatment of closed sea outflow grid-points to be the same as river mouth grid-points
/
!-----------------------------------------------------------------------
&namtsd        !    Temperature & Salinity Data  (init/dmp)             (default: OFF)
!-----------------------------------------------------------------------
   !                       ! =T  read T-S fields for:
   ln_tsd_init = .true.,         !  ocean initialisation
   ln_tsd_dmp  = .false.,         !  T-S restoring   (see namtra_dmp)
   ln_tsd_interp=.true.,

   cn_dir      = './INPUTS/'      !  root directory for the T-S data location
   !___________!_________________________!___________________!___________!_____________!________!___________!__________________!__________!_______________!
   !           !  file name              ! frequency (hours) ! variable  ! time interp.!  clim  ! 'yearly'/ ! weights filename ! rotation ! land/sea mask !
   !           !                         !  (if <0  months)  !   name    !   (logical) !  (T/F) ! 'monthly' !                  ! pairing  !    filename   !
   sn_sal='EN.4.1.1.f.analysis.g10.1995-2014.eORCA025.teos10.nc',-1,'salinity',.true.,.true.,'yearly','','','',
   sn_tem='EN.4.1.1.f.analysis.g10.1995-2014.eORCA025.teos10.nc',-1,'temperature',.true.,.true.,'yearly','','','',
   sn_dep  = 'EN4_depth.nc' ,     -12  ,'depth_4D',   .false.   , .true.  , 'yearly'   , '' ,    ''    ,      ''
   sn_msk  = 'EN4_depth.nc' ,     -12  ,'mask'     ,   .false.   , .true.  , 'yearly'   , '' ,    ''    ,      ''
/
======================================================================
!!            ***  Surface Boundary Condition namelists  ***          !!
!!                                                                    !!
!!   namsbc          surface boundary condition manager                 (default: NO selection)
!!   namsbc_flx      flux               formulation                     (ln_flx     =T)
!!   namsbc_blk      Bulk formulae formulation                          (ln_blk     =T)
!!   namsbc_cpl      CouPLed            formulation                     ("key_oasis3" )
!!   namsbc_sas      Stand-Alone Surface module                         (SAS_SRC  only)
!!   namsbc_iif      Ice-IF: use observed ice cover                     (nn_ice = 1   )
!!   namtra_qsr      penetrative solar radiation                        (ln_traqsr  =T)
!!   namsbc_ssr      sea surface restoring term (for T and/or S)        (ln_ssr     =T)
!!   namsbc_rnf      river runoffs                                      (ln_rnf     =T)
!!   namsbc_apr      Atmospheric Pressure                               (ln_apr_dyn =T)
!!   namsbc_wave     external fields from wave model                    (ln_wave    =T)
!!   namberg         iceberg floats                                     (ln_icebergs=T)
!!   namsbc_fwb      freshwater-budget adjustment                       (nn_fwb > 0)
!!======================================================================
!
!-----------------------------------------------------------------------
&namsbc        !   Surface Boundary Condition manager                   (default: NO selection)
!-----------------------------------------------------------------------
   nn_fsbc     = 1         !  frequency of SBC module call
      !                    !  (control sea-ice & iceberg model call)
                     ! Type of air-sea fluxes
   ln_blk      = .true.,   !  Bulk formulation                          (T => fill namsbc_blk )
                     ! Sea-ice :
   nn_ice      = 2         !  =0 no ice boundary condition
      !                    !  =1 use observed ice-cover                 (  => fill namsbc_iif )
      !                    !  =2 or 3 for SI3 and CICE, respectively
                     ! Misc. options of sbc :
   ln_traqsr   = .true.,   !  Light penetration in the ocean            (T => fill namtra_qsr)
   ln_dm2dc    = .false.,   !  daily mean to diurnal cycle on short wave
   ln_ssr      = .true.,   !  Sea Surface Restoring on T and/or S       (T => fill namsbc_ssr)
   nn_fwb      = 1         !  FreshWater Budget: =0 unchecked
      !                    !     =1 global mean of e-p-r set to zero at each time step
      !                    !     =2 annual global mean of e-p-r set to zero
   ln_rnf      = .true.,   !  runoffs                                   (T => fill namsbc_rnf)
   nn_lsm      = -3         !  =0 land/sea mask for input fields is not applied (keep empty land/sea mask filename field) ,
                           !  =1:n number of iterations of land/sea mask application for input fields (fill land/sea mask filename field)
/
!-----------------------------------------------------------------------
&namsbc_blk    !   namsbc_blk  generic Bulk formula          (ln_blk =T)
!-----------------------------------------------------------------------
   ln_NCAR      = .true.,     ! "NCAR"      algorithm   (Large and Yeager 2008)
      rn_zu        = 10.     !  Wind vector reference height (m)
      nn_iter_algo = 5       !  Number of iterations in bulk param. algo ("stable ABL + weak wind" requires more)
      ln_skin_cs   = .false., !  use the cool-skin parameterization  => use at least nn_iter_algo > 10
      ln_skin_wl   = .false., !  use the warm-layer parameterization => use at least nn_iter_algo > 10
   !
   rn_pfac    = 1.          !  multipl. factor for precipitation (total & snow)
   rn_efac    = 1.          !  multipl. factor for evaporation (0. or 1.)
   !
   ln_crt_fbk = .false.,     !  Add surface current feedback to the wind stress (Renault et al. 2020, doi: 10.1029/2019MS001715)
         rn_stau_a = -2.9e-3   !     Alpha from eq. 10: Stau = Alpha * Wnd + Beta
         rn_stau_b =  8.0e-3   !     Beta 
   !
   ln_humi_sph = .true.,  !  humidity "sn_humi" is specific humidity  [kg/kg]
   ln_humi_dpt = .false., !  humidity "sn_humi" is dew-point temperature [K]
   ln_humi_rlh = .false., !  humidity "sn_humi" is relative humidity     [%]
   ln_tair_pot = .false., !  air temperature read in "sn_tair" is already POTENTIAL TEMPERATURE, NOT ABSOLUTE (ECMWF => ln_tair_pot=.false.,)
   !!   
   !! Bulk transfer coefficients over sea-ice: (relevant IF: nn_ice >=1 )
   ln_Cx_ice_cst = .true.,     ! use constant ice-air bulk transfer coefficients (value given below)
      rn_Cd_i  = 1.4e-3       ! sea-ice drag coefficient
      rn_Ce_i  = 1.4e-3       !    "    sublimation coefficient
      rn_Ch_i  = 1.4e-3       !    "    sensible heat flux coefficient
   ln_Cx_ice_AN05  = .false.,  !  (Andreas et al. 2005)
   ln_Cx_ice_LU12  = .false.,  !  (Lupkes et al. 2012)
   ln_Cx_ice_LG15  = .false.,  !  (Lupkes & Gryanik 2015)
   !
   cn_dir      = './FORCING/JRA/'      !  root directory for the bulk data location
   !___________!_________________________!___________________!___________!_____________!________!___________!______________________________________!__________!_______________!
   !           !  file name              ! frequency (hours) ! variable  ! time interp.!  clim  ! 'yearly'/ !       weights filename               ! rotation ! land/sea mask !
   !           !                         !  (if <0  months)  !   name    !   (logical) !  (T/F) ! 'monthly' !                                      ! pairing  !    filename   !
   sn_wndi     = 'uas',                   3,                  'uas',      .true.,       .false., 'yearly',   'weights_grid_jra_bicubic_e025_nohaloes_full.nc',    'Ume',
   sn_wndj     = 'vas',                   3,                  'vas',      .true.,       .false., 'yearly',   'weights_grid_jra_bicubic_e025_nohaloes_full.nc',    'Vme',
   sn_qsr      = 'rsds',                  3,                  'rsds',     .false.,      .false., 'yearly',   'weights_grid_jra_bilin_e025_nohaloes_full.nc',      '',
   sn_qlw      = 'rlds',                  3,                  'rlds',     .false.,      .false., 'yearly',   'weights_grid_jra_bilin_e025_nohaloes_full.nc',      '',
   sn_tair     = 'tas',                   3,                  'tas',      .true.,       .false., 'yearly',   'weights_grid_jra_bilin_e025_nohaloes_full.nc',      '',
   sn_humi     = 'huss',                  3,                  'huss',     .true.,       .false., 'yearly',   'weights_grid_jra_bilin_e025_nohaloes_full.nc',      '',
   sn_prec     = 'ptot',                  3,                  'ptot',     .true.,       .false., 'yearly',   'weights_grid_jra_bilin_e025_nohaloes_full.nc',      '',
   sn_snow     = 'prsn',                  3,                  'prsn',     .true.,       .false., 'yearly',   'weights_grid_jra_bilin_e025_nohaloes_full.nc',      '',
   sn_slp      = 'psl',                   3,                  'psl',      .true.,       .false., 'yearly',   'weights_grid_jra_bilin_e025_nohaloes_full.nc',      '',
   sn_uoatm    = 'NOT USED'                   ,    6.        , 'UOATM'   ,   .false.   , .true. , 'yearly'  , 'weights_core_orca2_bilinear_noc.nc' , 'Uoceatm', ''
   sn_voatm    = 'NOT USED'                   ,    6.        , 'VOATM'   ,   .false.   , .true. , 'yearly'  , 'weights_core_orca2_bilinear_noc.nc' , 'Voceatm', ''
   sn_cc       = 'NOT USED'                   ,   24.        , 'CC'      ,   .false.   , .true. , 'yearly'  , 'weights_core_orca2_bilinear_noc.nc' , ''       , ''
   sn_hpgi     = 'NOT USED'                   ,   24.        , 'uhpg'    ,   .false.   , .false., 'monthly' , 'weights_ERAI3D_F128_2_ORCA2_bicubic', 'UG'     , ''
   sn_hpgj     = 'NOT USED'                   ,   24.        , 'vhpg'    ,   .false.   , .false., 'monthly' , 'weights_ERAI3D_F128_2_ORCA2_bicubic', 'VG'     , ''
/
!-----------------------------------------------------------------------
&namtra_qsr    !   penetrative solar radiation                          (ln_traqsr =T)
!-----------------------------------------------------------------------
   !                       !  type of penetration                        (default: NO selection)
   ln_qsr_rgb  = .true.,      !  RGB light penetration (Red-Green-Blue)

   cn_dir      = './INPUTS/'      !  root directory for the chlorophyl data location
   !___________!_________________________!___________________!___________!_____________!________!___________!__________________!__________!_______________!
   !           !  file name              ! frequency (hours) ! variable  ! time interp.!  clim  ! 'yearly'/ ! weights filename ! rotation ! land/sea mask !
   !           !                         !  (if <0  months)  !   name    !   (logical) !  (T/F) ! 'monthly' !                  ! pairing  !    filename   !
   sn_chl      ='chlorophyll'            ,        -1.        , 'CHLA'    ,   .true.    , .true. , 'yearly'  , ''               , ''       , ''
/
!-----------------------------------------------------------------------
&namsbc_ssr    !   surface boundary condition : sea surface restoring   (ln_ssr =T)
!-----------------------------------------------------------------------
   nn_sstr     =     0     !  add a retroaction term to the surface heat flux (=1) or not (=0)
      rn_dqdt     = -40.      !  magnitude of the retroaction on temperature   [W/m2/K]
   nn_sssr     =     2     !  add a damping term to the surface freshwater flux (=2)
      !                    !  or to SSS only (=1) or no damping term (=0)
      rn_deds     =  -33.333  !  magnitude of the damping on salinity   [mm/day]
      ln_sssr_bnd =  .true.,   !  flag to bound erp term (associated with nn_sssr=2)
      rn_sssr_bnd =   4.e0    !  ABS(Max/Min) value of the damping erp term [mm/day]
      nn_sssr_ice =   1       ! control of sea surface restoring under sea-ice
                              ! 0 = no restoration under ice : * (1-icefrac)
                              ! 1 = restoration everywhere 
                              ! >1 = enhanced restoration under ice : 1+(nn_icedmp-1)*icefrac

   cn_dir      = './INPUTS/'      !  root directory for the SST/SSS data location
   !___________!_________________________!___________________!___________!_____________!________!___________!__________________!__________!_______________!
   !           !  file name              ! frequency (hours) ! variable  ! time interp.!  clim  ! 'yearly'/ ! weights filename ! rotation ! land/sea mask !
   !           !                         !  (if <0  months)  !   name    !   (logical) !  (T/F) ! 'monthly' !                  ! pairing  !    filename   !
   sn_sst      = 'sst_data'              ,        24.        ,  'sst'    ,    .false.  , .false., 'yearly'  ,    ''            ,    ''    ,     ''
   sn_sss      = 'sss_1m_teos10.nc',-1,'salinity',.true.,.true.,'yearly','','','',
/


/
!-----------------------------------------------------------------------
&namsbc_rnf    !   runoffs                                              (ln_rnf =T)
!-----------------------------------------------------------------------
   ln_rnf_mouth = .true.,   !  specific treatment at rivers mouths
      rn_hrnf     =  10.e0     !  depth over which enhanced vertical mixing is used    (ln_rnf_mouth=T)
      rn_avt_rnf  =   2.e-3    !  value of the additional vertical mixing coef. [m2/s] (ln_rnf_mouth=T)
   rn_rfact     =   1.e0    !  multiplicative factor for runoff
   ln_rnf_depth = .false.,   !  read in depth information for runoff
   ln_rnf_tem   = .false.,   !  read in temperature information for runoff
   ln_rnf_sal   = .false.,   !  read in salinity information for runoff
   ln_rnf_icb   = .false.,   !  read iceberg flux
   ln_rnf_depth_ini = .false.,  ! compute depth at initialisation from runoff file
      rn_rnf_max  = 5.735e-4   !  max value of the runoff climatologie over global domain ( ln_rnf_depth_ini = .true.,)
      rn_dep_max  = 150.       !  depth over which runoffs is spread ( ln_rnf_depth_ini = .true.,)
      nn_rnf_depth_file = 0    !  create (=1) a runoff depth file or not (=0)

   cn_dir       = './INPUTS/'      !  root directory for the runoff data location
   !___________!_________________________!___________________!___________!_____________!________!___________!__________________!__________!_______________!
   !           !  file name              ! frequency (hours) ! variable  ! time interp.!  clim  ! 'yearly'/ ! weights filename ! rotation ! land/sea mask !
   !           !                         !  (if <0  months)  !   name    !   (logical) !  (T/F) ! 'monthly' !                  ! pairing  !    filename   !
   sn_rnf      = XXX_RNF_XXX                                                                               , ''               , ''       , ''
   sn_cnf      = 'runoff_1m_nomask.nc'   ,       -12.        , 'socoefr',   .false.   , .true. , 'yearly'  , ''               , ''       , ''
   sn_s_rnf    = 'runoffs'               ,        24.        , 'rosaline',   .true.    , .true. , 'yearly'  , ''               , ''       , ''
   sn_t_rnf    = 'runoffs'               ,        24.        , 'rotemper',   .true.    , .true. , 'yearly'  , ''               , ''       , ''
   sn_i_rnf    = 'NOT USED'              ,        24.        , 'xxxxxxxx',   .true.    , .true. , 'yearly'  , ''               , ''       , ''
   sn_dep_rnf  = 'runoffs'               ,       -12.        , 'rodepth' ,   .false.   , .true. , 'yearly'  , ''               , ''       , ''
/
!-----------------------------------------------------------------------
&namisf       !  Top boundary layer (ISF)                               (default: OFF)
!-----------------------------------------------------------------------
    ln_isf = .true.,
    ln_isfpar_mlt = .true.,
    sn_isfpar_zmax = 'INPUTS/JRA_RIVERS/runoff_1m_nomask.nc', 0, 'sozisfmax', .false.,
                     .true., 'yearly', '', '', '',
    sn_isfpar_zmin = 'INPUTS/JRA_RIVERS/runoff_1m_nomask.nc', 0, 'sozisfmin', .false.,
                     .true., 'yearly', '', '', '',
    sn_isfpar_fwf = 'INPUTS/JRA_RIVERS/runoff_1m_nomask.nc', -1, 'sofwfisf', .false.,
                    .true., 'yearly', '', '', '',
/
!-----------------------------------------------------------------------
&namsbc_fwb    !   freshwater-budget adjustment                         (nn_fwb > 0)
!-----------------------------------------------------------------------
   rn_fwb0     = 0.0          ! Initial freshwater adjustment flux [kg/m2/s] (nn_fwb = 2)
/

!!======================================================================
!!               ***  Lateral boundary condition  ***                 !!
!!                                                                    !!
!!   namlbc        lateral momentum boundary condition                  (default: NO selection)
!!   namagrif      agrif nested grid   (read by child model only)       ("key_agrif")
!!   nam_tide      Tidal forcing                                        (default: OFF)
!!   nambdy        Unstructured open boundaries                         (default: OFF)
!!   nambdy_dta    Unstructured open boundaries - external data         (see  nambdy)
!!   nambdy_tide   tidal forcing at open boundaries                     (default: OFF)
!!======================================================================
!
!-----------------------------------------------------------------------
&namlbc        !   lateral momentum boundary condition                  (default: NO selection)
!-----------------------------------------------------------------------
   !                       !  free slip  !   partial slip  !   no slip   ! strong slip
   rn_shlat    =  0.   !  shlat = 0  !  0 < shlat < 2  !  shlat = 2  !  2 < shlat
   ln_shlat2d=XXX_SHA_XXX,
   ln_vorlat=.false.,
   cn_shlat2d_file='./INPUTS/shlat2d.nc',
   cn_shlat2d_var='shlat2d',
/
!-----------------------------------------------------------------------
&nam_tide      !   tide parameters                                      (default: OFF)
!-----------------------------------------------------------------------
   ln_tide     = XXX_TID_XXX,      ! Activate tides
      nn_tide_var   = 1          !  Variant of tidal parameter set and tide-potential computation
      !                          !     (1: default; 0: compatibility with previous versions)
      ln_tide_dia   = .true.,    !  Enable tidal diagnostic output
      ln_tide_pot   = .true.,               !  use tidal potential forcing
         rn_tide_gamma = 0.7                   ! Tidal tilt factor
         ln_scal_load  = .true.,               ! Use scalar approximation for
            rn_scal_load = 0.12               !     load potential
         ln_read_load  = .false.,               ! Or read load potential from file
            cn_tide_load = 'tide_LOAD_grid_T.nc'  ! filename for load potential
            !
      ln_tide_ramp  = XXX_RMP_XXX,               !  Use linear ramp for tides at startup
         rn_tide_ramp_dt = 28.               !  ramp duration in days
!     ln_calc_tdiss = XXX_CTD_XXX ,   ! calculate tdiss rather than reading in
!        cn_h_rough = 'INPUTS/h_RMS_topog_anom.nc', ! roughness file
!        rn_kappa_tdiss = 0.00075398 ! x12 value  0.00006283,  ! wave number Jayne and Laurence 2004 value !282.74333! increasedwith x1500^2 x2
!        tdiss_mindepth = 200.0 ! minimum depth to apply tdiss parameterisation 
!
      sn_tide_cnames(1) = 'Sa',
      sn_tide_cnames(2) = 'Ssa',
      sn_tide_cnames(3) = 'Mm',
      sn_tide_cnames(4) = 'Msf',
      sn_tide_cnames(5) = 'Mf',
      sn_tide_cnames(6) = 'K1',
      sn_tide_cnames(7) = 'Q1',
      sn_tide_cnames(8) = 'O1',
      sn_tide_cnames(9) = 'P1',
      sn_tide_cnames(10) = 'S1',
      sn_tide_cnames(11) = 'J1',
      sn_tide_cnames(12) = 'M2',
      sn_tide_cnames(13) = 'S2',
      sn_tide_cnames(14) = '2N2',
      sn_tide_cnames(15) = 'mu2',
      sn_tide_cnames(16) = 'N2',
      sn_tide_cnames(17) = 'nu2',
      sn_tide_cnames(18) = 'L2',
      sn_tide_cnames(19) = 'T2',
      sn_tide_cnames(20) = 'K2',
      sn_tide_cnames(21) = 'MKS2',
      sn_tide_cnames(22) = 'lam2',
      sn_tide_cnames(23) = 'R2',
/

!!======================================================================
!!                ***  Top/Bottom boundary condition  ***             !!
!!                                                                    !!
!!   namdrg        top/bottom drag coefficient                          (default: NO selection)
!!   namdrg_top    top    friction                                      (ln_drg_OFF=F & ln_isfcav=T)
!!   namdrg_bot    bottom friction                                      (ln_drg_OFF=F)
!!   nambbc        bottom temperature boundary condition                (default: OFF)
!!   nambbl        bottom boundary layer scheme                         (default: OFF)
!!======================================================================
!
!-----------------------------------------------------------------------
&namdrg        !   top/bottom drag coefficient                          (default: NO selection)
!-----------------------------------------------------------------------
   ln_drg_OFF  = .false.,   !  free-slip       : Cd = 0                  (F => fill namdrg_bot
   ln_non_lin  = XXX_NLN_XXX,   !  non-linear  drag: Cd = Cd0 |U|
   ln_loglayer = XXX_LOG_XXX,   !  logarithmic drag: Cd = vkarmn/log(z/z0) |U|
   !
   ln_drgimp   = .true.,    !  implicit top/bottom friction flag
      ln_drgice_imp = .true., ! implicit ice-ocean drag
/
!-----------------------------------------------------------------------
&namdrg_top    !   TOP friction                                         (ln_drg_OFF =F & ln_isfcav=T)
!-----------------------------------------------------------------------
   rn_Cd0      =  1.e-3    !  drag coefficient [-]
   rn_Uc0      =  0.4      !  ref. velocity [m/s] (linear drag=Cd0*Uc0)
   rn_Cdmax    =  0.1      !  drag value maximum [-] (logarithmic drag)
   rn_ke0      =  2.5e-3   !  background kinetic energy  [m2/s2] (non-linear cases)
   rn_z0       =  3.0e-3   !  roughness [m] (ln_loglayer=T)
   ln_boost    = .false.,   !  =T regional boost of Cd0 ; =F constant
      rn_boost =  50.         !  local boost factor  [-]
/
!-----------------------------------------------------------------------
&namdrg_bot    !   BOTTOM friction                                      (ln_drg_OFF =F)
!-----------------------------------------------------------------------
   rn_Cd0      =  XXX_CD0_XXX    !  drag coefficient [-]
   rn_Uc0      =  0.4      !  ref. velocity [m/s] (linear drag=Cd0*Uc0)
   rn_Cdmax    =  0.1      !  drag value maximum [-] (logarithmic drag)
   rn_ke0      =  2.5e-3   !  background kinetic energy  [m2/s2] (non-linear cases)
   rn_z0       =  3.e-3    !  roughness [m] (ln_loglayer=T)